/*--------------------------------*- C++ -*----------------------------------*\
| =========                 |                                                 |
| \\      /  F ield         | OpenFOAM: The Open Source CFD Toolbox           |
|  \\    /   O peration     | Version:  v2212                                 |
|   \\  /    A nd           | Website:  www.openfoam.com                      |
|    \\/     M anipulation  |                                                 |
\*---------------------------------------------------------------------------*/
FoamFile
{
    version     2.0;
    format      ascii;
    class       volScalarField;
    object      X_A;
}
// * * * * * * * * * * * * * * * * * * * * * * * * * * * * * * * * * * * * * //

dimensions      [0 -3 0 0 1 0 0];

internalField   uniform 0;     // no bulk biomass initially

boundaryField
{
    inlet
    {
        type            zeroGradient;
    }

    outlet
    {
        type            zeroGradient;
    }

    top
    {
        type            zeroGradient;
    }

    biofilmWall
    {
        type            fixedValue;
        value           uniform 0.1;   // 0.1 mol/m³ seed biomass at wall
    }

    frontAndBack
    {
        type            empty;
    }
}

// ************************************************************************* //
